test/data/teste_3barras_2ref_mod_volt.raw
     0,   100.0,    32,     0,     0,    0.00 / PSS(R)E 32
 Caso do Anderson - P�gina 38                                
                                                             
     1,'Bus 1       ',   1.0000,  3,    1,    1,    1,   1.029000,     0.0000
     2,'Bus 2       ',   1.0000,  3,    1,    1,    1,   1.030000,     0.0000
     3,'Bus 3       ',   1.0000,  1,    1,    1,    1,   1.030000,     0.7700
 0  / END OF BUS DATA, BEGIN LOAD DATA
     3,'1 ', 1,   1,    1,     30.390,      5.329,     0.000,       0.000,       0.000,     0.000,   1, 1
 0  / END OF LOAD DATA, BEGIN FIXED SHUNT DATA
 0  / END OF FIXED SHUNT DATA, BEGIN GENERATOR DATA
     1,'1 ',    11.520,     23.680,    130.400,   -130.000,    1.0290,      0,    100.000,     0.0000,     0.0003,    0.0000,    0.0000,    1.0000,  1,     0.0,   99999.000,       0.000,    1,    1.000,     0,    0.000,     0,    0.000,     0,    0.000,  0,      0.000
     2,'1 ',    12.990,      2.500,   9999.000,  -9999.000,    1.0300,      0,    100.000,     0.0000,     0.0003,    0.0000,    0.0000,    1.0000,  1,     0.0,   99999.000,       0.000,    1,    1.000,     0,    0.000,     0,    0.000,     0,    0.000,  0,      0.000
 0  / END OF GENERATOR DATA, BEGIN BRANCH DATA
     1,     2,'01', 0.18100E+00,  0.17400E+00,   0.00000,     0.0,     0.0,     0.0,   0.00000,   0.00000,   0.00000,   0.00000,  1,  1,     0.00,   0,   1.0000
     1,     3,'01', 0.18100E+00,  0.17400E+00,   0.00000,     0.0,     0.0,     0.0,   0.00000,   0.00000,   0.00000,   0.00000,  1,  1,     0.00,   0,   1.0000
     2,     3,'01', 0.18100E+00,  0.17400E+00,   0.00000,     0.0,     0.0,     0.0,   0.00000,   0.00000,   0.00000,   0.00000,  1,  1,     0.00,   0,   1.0000
 0  / END OF BRANCH DATA, BEGIN TRANSFORMER DATA
 0  / END OF TRANSFORMER DATA, BEGIN AREA DATA
     1,     0,     0.000,    10.000, 'None      '
     2,     0,     0.000,    10.000, 'None      '
 0  / END OF AREA DATA, BEGIN TWO-TERMINAL DC DATA
 0  / END OF TWO-TERMINAL DC DATA, BEGIN VSC DATA
 0  / END OF VSC DATA, BEGIN IMPEDANCE CORRECTION DATA
 0 / END OF IMPEDANCE CORRECTION DATA, BEGIN MULTI-TERMINAL DC DATA
 0 / END OF MULTI-TERMINAL DC DATA, BEGIN MULTI-SECTION LINE DATA
 0 / END OF MULTI-SECTION LINE DATA, BEGIN ZONE DATA
 0 / END OF ZONE DATA, BEGIN INTER-AREA TRANSFER DATA
 0 / END OF INTER-AREA TRANSFER DATA, BEGIN OWNER DATA
 0 / END OF OWNER DATA, BEGIN FACTS CONTROL DEVICE DATA
 0 / END OF FACTS CONTROL DEVICE DATA, BEGIN SWITCHED SHUNT DATA
 0 / END OF SWITCHED SHUNT DATA
Q / END OF DATA
